<?xml version="1.0" encoding="UTF-8"?>

<!-- generated on Fri 21 Feb 2020 03:20:42 PM PST by Eclipse SUMO netedit Version 1.4.0
<configuration xmlns:xsi="http://www.w3.org/2001/XMLSchema-instance" xsi:noNamespaceSchemaLocation="http://sumo.dlr.de/xsd/netconvertConfiguration.xsd">

    <input>
        <sumo-net-file value="asl_net.net.xml"/>
    </input>

    <output>
        <output-file value="/home/anthl10/Programming/sumo/tests/complex/tutorial/manhattan/data/asl_simple_net.net.xml"/>
    </output>

    <processing>
        <geometry.min-radius.fix.railways value="false"/>
        <geometry.max-grade.fix value="false"/>
        <offset.disable-normalization value="true"/>
        <lefthand value="false"/>
    </processing>

    <junctions>
        <no-turnarounds value="true"/>
        <junctions.corner-detail value="5"/>
        <junctions.limit-turn-speed value="5.5"/>
        <rectangular-lane-cut value="false"/>
    </junctions>

    <pedestrian>
        <walkingareas value="false"/>
    </pedestrian>

    <netedit>
        <route-files value="/home/anthl10/Programming/sumo/tests/complex/tutorial/manhattan/data/asl_routes_simple.rou.xml"/>
    </netedit>

    <report>
        <aggregate-warnings value="5"/>
    </report>

departPos="last"

</configuration>

DEPART SPEED IS KEY FOR THE NUMBER OF INITIAL VEHICLES IN THE ROADS
-->
<!-- carFollowModel="IDM" --> 
<routes xmlns:xsi="http://www.w3.org/2001/XMLSchema-instance" xsi:noNamespaceSchemaLocation="http://sumo.dlr.de/xsd/routes_file.xsd">
    <vType id="ASL_VTYPE" length="5.0" minGap="2" carFollowModel="IDM" accel="3" decel="3" tau="1.5" maxSpeed="15.0"/>
    <route id="eastwest" color="1,1,0" edges="H4G4 G4F4"/>
    <route id="northsouth" color="1,1,0" edges="G5G4 G4G3"/>
 <vehicle id="0" type="ASL_VTYPE" route="eastwest" depart="0" departSpeed="0.000000" departPos="0.000000" color="1,1,0"/>
<vehicle id="1" type="ASL_VTYPE" route="eastwest" depart="0" departSpeed="0.000000" departPos="7.000000" color="1,1,0"/>
<vehicle id="2" type="ASL_VTYPE" route="eastwest" depart="62" departSpeed="15.000000" departPos="7.000000" color="1,1,0"/>
<vehicle id="3" type="ASL_VTYPE" route="eastwest" depart="63" departSpeed="15.000000" departPos="0.000000" color="1,1,0"/>
<vehicle id="4" type="ASL_VTYPE" route="eastwest" depart="122" departSpeed="15.000000" departPos="7.000000" color="1,1,0"/>
<vehicle id="5" type="ASL_VTYPE" route="eastwest" depart="123" departSpeed="15.000000" departPos="0.000000" color="1,1,0"/>
<vehicle id="6" type="ASL_VTYPE" route="eastwest" depart="182" departSpeed="15.000000" departPos="7.000000" color="1,1,0"/>
<vehicle id="7" type="ASL_VTYPE" route="eastwest" depart="183" departSpeed="15.000000" departPos="0.000000" color="1,1,0"/>
<vehicle id="8" type="ASL_VTYPE" route="eastwest" depart="242" departSpeed="15.000000" departPos="7.000000" color="1,1,0"/>
<vehicle id="9" type="ASL_VTYPE" route="eastwest" depart="243" departSpeed="15.000000" departPos="0.000000" color="1,1,0"/>
<vehicle id="10" type="ASL_VTYPE" route="eastwest" depart="302" departSpeed="15.000000" departPos="7.000000" color="1,1,0"/>
<vehicle id="11" type="ASL_VTYPE" route="eastwest" depart="303" departSpeed="15.000000" departPos="0.000000" color="1,1,0"/>
<vehicle id="12" type="ASL_VTYPE" route="eastwest" depart="362" departSpeed="15.000000" departPos="7.000000" color="1,1,0"/>
<vehicle id="13" type="ASL_VTYPE" route="eastwest" depart="363" departSpeed="15.000000" departPos="0.000000" color="1,1,0"/>
<vehicle id="14" type="ASL_VTYPE" route="eastwest" depart="422" departSpeed="15.000000" departPos="7.000000" color="1,1,0"/>
<vehicle id="15" type="ASL_VTYPE" route="eastwest" depart="423" departSpeed="15.000000" departPos="0.000000" color="1,1,0"/>
<vehicle id="16" type="ASL_VTYPE" route="eastwest" depart="482" departSpeed="15.000000" departPos="7.000000" color="1,1,0"/>
<vehicle id="17" type="ASL_VTYPE" route="eastwest" depart="483" departSpeed="15.000000" departPos="0.000000" color="1,1,0"/>
<vehicle id="18" type="ASL_VTYPE" route="eastwest" depart="542" departSpeed="15.000000" departPos="7.000000" color="1,1,0"/>
<vehicle id="19" type="ASL_VTYPE" route="eastwest" depart="543" departSpeed="15.000000" departPos="0.000000" color="1,1,0"/>
<vehicle id="20" type="ASL_VTYPE" route="eastwest" depart="602" departSpeed="15.000000" departPos="7.000000" color="1,1,0"/>
<vehicle id="21" type="ASL_VTYPE" route="eastwest" depart="603" departSpeed="15.000000" departPos="0.000000" color="1,1,0"/>
<vehicle id="22" type="ASL_VTYPE" route="eastwest" depart="662" departSpeed="15.000000" departPos="7.000000" color="1,1,0"/>
<vehicle id="23" type="ASL_VTYPE" route="eastwest" depart="663" departSpeed="15.000000" departPos="0.000000" color="1,1,0"/>
<vehicle id="24" type="ASL_VTYPE" route="eastwest" depart="722" departSpeed="15.000000" departPos="7.000000" color="1,1,0"/>
<vehicle id="25" type="ASL_VTYPE" route="eastwest" depart="723" departSpeed="15.000000" departPos="0.000000" color="1,1,0"/>
<vehicle id="26" type="ASL_VTYPE" route="eastwest" depart="782" departSpeed="15.000000" departPos="7.000000" color="1,1,0"/>
<vehicle id="27" type="ASL_VTYPE" route="eastwest" depart="783" departSpeed="15.000000" departPos="0.000000" color="1,1,0"/>
<vehicle id="28" type="ASL_VTYPE" route="eastwest" depart="842" departSpeed="15.000000" departPos="7.000000" color="1,1,0"/>
<vehicle id="29" type="ASL_VTYPE" route="eastwest" depart="843" departSpeed="15.000000" departPos="0.000000" color="1,1,0"/>
<vehicle id="30" type="ASL_VTYPE" route="eastwest" depart="902" departSpeed="15.000000" departPos="7.000000" color="1,1,0"/>
<vehicle id="31" type="ASL_VTYPE" route="eastwest" depart="903" departSpeed="15.000000" departPos="0.000000" color="1,1,0"/>
<vehicle id="32" type="ASL_VTYPE" route="eastwest" depart="962" departSpeed="15.000000" departPos="7.000000" color="1,1,0"/>
<vehicle id="33" type="ASL_VTYPE" route="eastwest" depart="963" departSpeed="15.000000" departPos="0.000000" color="1,1,0"/>
<vehicle id="34" type="ASL_VTYPE" route="eastwest" depart="1022" departSpeed="15.000000" departPos="7.000000" color="1,1,0"/>
<vehicle id="35" type="ASL_VTYPE" route="eastwest" depart="1023" departSpeed="15.000000" departPos="0.000000" color="1,1,0"/>
<vehicle id="36" type="ASL_VTYPE" route="eastwest" depart="1082" departSpeed="15.000000" departPos="7.000000" color="1,1,0"/>
<vehicle id="37" type="ASL_VTYPE" route="eastwest" depart="1083" departSpeed="15.000000" departPos="0.000000" color="1,1,0"/>
<vehicle id="38" type="ASL_VTYPE" route="eastwest" depart="1142" departSpeed="15.000000" departPos="7.000000" color="1,1,0"/>
<vehicle id="39" type="ASL_VTYPE" route="eastwest" depart="1143" departSpeed="15.000000" departPos="0.000000" color="1,1,0"/>
<vehicle id="40" type="ASL_VTYPE" route="eastwest" depart="1202" departSpeed="15.000000" departPos="7.000000" color="1,1,0"/>
<vehicle id="41" type="ASL_VTYPE" route="eastwest" depart="1203" departSpeed="15.000000" departPos="0.000000" color="1,1,0"/>
<vehicle id="42" type="ASL_VTYPE" route="eastwest" depart="1262" departSpeed="15.000000" departPos="7.000000" color="1,1,0"/>
<vehicle id="43" type="ASL_VTYPE" route="eastwest" depart="1263" departSpeed="15.000000" departPos="0.000000" color="1,1,0"/>
<vehicle id="44" type="ASL_VTYPE" route="eastwest" depart="1322" departSpeed="15.000000" departPos="7.000000" color="1,1,0"/>
<vehicle id="45" type="ASL_VTYPE" route="eastwest" depart="1323" departSpeed="15.000000" departPos="0.000000" color="1,1,0"/>
<vehicle id="46" type="ASL_VTYPE" route="eastwest" depart="1382" departSpeed="15.000000" departPos="7.000000" color="1,1,0"/>
<vehicle id="47" type="ASL_VTYPE" route="eastwest" depart="1383" departSpeed="15.000000" departPos="0.000000" color="1,1,0"/>
<vehicle id="48" type="ASL_VTYPE" route="eastwest" depart="1442" departSpeed="15.000000" departPos="7.000000" color="1,1,0"/>
<vehicle id="49" type="ASL_VTYPE" route="eastwest" depart="1443" departSpeed="15.000000" departPos="0.000000" color="1,1,0"/>
<vehicle id="50" type="ASL_VTYPE" route="eastwest" depart="1502" departSpeed="15.000000" departPos="7.000000" color="1,1,0"/>
<vehicle id="51" type="ASL_VTYPE" route="eastwest" depart="1503" departSpeed="15.000000" departPos="0.000000" color="1,1,0"/>
<vehicle id="52" type="ASL_VTYPE" route="eastwest" depart="1562" departSpeed="15.000000" departPos="7.000000" color="1,1,0"/>
<vehicle id="53" type="ASL_VTYPE" route="eastwest" depart="1563" departSpeed="15.000000" departPos="0.000000" color="1,1,0"/>
<vehicle id="54" type="ASL_VTYPE" route="eastwest" depart="1622" departSpeed="15.000000" departPos="7.000000" color="1,1,0"/>
<vehicle id="55" type="ASL_VTYPE" route="eastwest" depart="1623" departSpeed="15.000000" departPos="0.000000" color="1,1,0"/>
<vehicle id="56" type="ASL_VTYPE" route="eastwest" depart="1682" departSpeed="15.000000" departPos="7.000000" color="1,1,0"/>
<vehicle id="57" type="ASL_VTYPE" route="eastwest" depart="1683" departSpeed="15.000000" departPos="0.000000" color="1,1,0"/>
<vehicle id="58" type="ASL_VTYPE" route="eastwest" depart="1742" departSpeed="15.000000" departPos="7.000000" color="1,1,0"/>
<vehicle id="59" type="ASL_VTYPE" route="eastwest" depart="1743" departSpeed="15.000000" departPos="0.000000" color="1,1,0"/>
<vehicle id="60" type="ASL_VTYPE" route="eastwest" depart="1802" departSpeed="15.000000" departPos="7.000000" color="1,1,0"/>
<vehicle id="61" type="ASL_VTYPE" route="eastwest" depart="1803" departSpeed="15.000000" departPos="0.000000" color="1,1,0"/>
<vehicle id="62" type="ASL_VTYPE" route="eastwest" depart="1862" departSpeed="15.000000" departPos="7.000000" color="1,1,0"/>
<vehicle id="63" type="ASL_VTYPE" route="eastwest" depart="1863" departSpeed="15.000000" departPos="0.000000" color="1,1,0"/>
<vehicle id="64" type="ASL_VTYPE" route="eastwest" depart="1922" departSpeed="15.000000" departPos="7.000000" color="1,1,0"/>
<vehicle id="65" type="ASL_VTYPE" route="eastwest" depart="1923" departSpeed="15.000000" departPos="0.000000" color="1,1,0"/>
<vehicle id="66" type="ASL_VTYPE" route="eastwest" depart="1982" departSpeed="15.000000" departPos="7.000000" color="1,1,0"/>
<vehicle id="67" type="ASL_VTYPE" route="eastwest" depart="1983" departSpeed="15.000000" departPos="0.000000" color="1,1,0"/>
<vehicle id="68" type="ASL_VTYPE" route="eastwest" depart="2042" departSpeed="15.000000" departPos="7.000000" color="1,1,0"/>
<vehicle id="69" type="ASL_VTYPE" route="eastwest" depart="2043" departSpeed="15.000000" departPos="0.000000" color="1,1,0"/>
<vehicle id="70" type="ASL_VTYPE" route="eastwest" depart="2102" departSpeed="15.000000" departPos="7.000000" color="1,1,0"/>
<vehicle id="71" type="ASL_VTYPE" route="eastwest" depart="2103" departSpeed="15.000000" departPos="0.000000" color="1,1,0"/>
<vehicle id="72" type="ASL_VTYPE" route="eastwest" depart="2162" departSpeed="15.000000" departPos="7.000000" color="1,1,0"/>
<vehicle id="73" type="ASL_VTYPE" route="eastwest" depart="2163" departSpeed="15.000000" departPos="0.000000" color="1,1,0"/>
<vehicle id="74" type="ASL_VTYPE" route="eastwest" depart="2222" departSpeed="15.000000" departPos="7.000000" color="1,1,0"/>
<vehicle id="75" type="ASL_VTYPE" route="eastwest" depart="2223" departSpeed="15.000000" departPos="0.000000" color="1,1,0"/>
<vehicle id="76" type="ASL_VTYPE" route="eastwest" depart="2282" departSpeed="15.000000" departPos="7.000000" color="1,1,0"/>
<vehicle id="77" type="ASL_VTYPE" route="eastwest" depart="2283" departSpeed="15.000000" departPos="0.000000" color="1,1,0"/>
<vehicle id="78" type="ASL_VTYPE" route="eastwest" depart="2342" departSpeed="15.000000" departPos="7.000000" color="1,1,0"/>
<vehicle id="79" type="ASL_VTYPE" route="eastwest" depart="2343" departSpeed="15.000000" departPos="0.000000" color="1,1,0"/>
<vehicle id="80" type="ASL_VTYPE" route="eastwest" depart="2402" departSpeed="15.000000" departPos="7.000000" color="1,1,0"/>
<vehicle id="81" type="ASL_VTYPE" route="eastwest" depart="2403" departSpeed="15.000000" departPos="0.000000" color="1,1,0"/>
<vehicle id="82" type="ASL_VTYPE" route="eastwest" depart="2462" departSpeed="15.000000" departPos="7.000000" color="1,1,0"/>
<vehicle id="83" type="ASL_VTYPE" route="eastwest" depart="2463" departSpeed="15.000000" departPos="0.000000" color="1,1,0"/>
<vehicle id="84" type="ASL_VTYPE" route="eastwest" depart="2522" departSpeed="15.000000" departPos="7.000000" color="1,1,0"/>
<vehicle id="85" type="ASL_VTYPE" route="eastwest" depart="2523" departSpeed="15.000000" departPos="0.000000" color="1,1,0"/>
<vehicle id="86" type="ASL_VTYPE" route="eastwest" depart="2582" departSpeed="15.000000" departPos="7.000000" color="1,1,0"/>
<vehicle id="87" type="ASL_VTYPE" route="eastwest" depart="2583" departSpeed="15.000000" departPos="0.000000" color="1,1,0"/>
<vehicle id="88" type="ASL_VTYPE" route="eastwest" depart="2642" departSpeed="15.000000" departPos="7.000000" color="1,1,0"/>
<vehicle id="89" type="ASL_VTYPE" route="eastwest" depart="2643" departSpeed="15.000000" departPos="0.000000" color="1,1,0"/>
<vehicle id="90" type="ASL_VTYPE" route="eastwest" depart="2702" departSpeed="15.000000" departPos="7.000000" color="1,1,0"/>
<vehicle id="91" type="ASL_VTYPE" route="eastwest" depart="2703" departSpeed="15.000000" departPos="0.000000" color="1,1,0"/>
<vehicle id="92" type="ASL_VTYPE" route="eastwest" depart="2762" departSpeed="15.000000" departPos="7.000000" color="1,1,0"/>
<vehicle id="93" type="ASL_VTYPE" route="eastwest" depart="2763" departSpeed="15.000000" departPos="0.000000" color="1,1,0"/>
<vehicle id="94" type="ASL_VTYPE" route="eastwest" depart="2822" departSpeed="15.000000" departPos="7.000000" color="1,1,0"/>
<vehicle id="95" type="ASL_VTYPE" route="eastwest" depart="2823" departSpeed="15.000000" departPos="0.000000" color="1,1,0"/>
<vehicle id="96" type="ASL_VTYPE" route="eastwest" depart="2882" departSpeed="15.000000" departPos="7.000000" color="1,1,0"/>
<vehicle id="97" type="ASL_VTYPE" route="eastwest" depart="2883" departSpeed="15.000000" departPos="0.000000" color="1,1,0"/>
<vehicle id="98" type="ASL_VTYPE" route="eastwest" depart="2942" departSpeed="15.000000" departPos="7.000000" color="1,1,0"/>
<vehicle id="99" type="ASL_VTYPE" route="eastwest" depart="2943" departSpeed="15.000000" departPos="0.000000" color="1,1,0"/>
<vehicle id="100" type="ASL_VTYPE" route="eastwest" depart="3002" departSpeed="15.000000" departPos="7.000000" color="1,1,0"/>
<vehicle id="101" type="ASL_VTYPE" route="eastwest" depart="3003" departSpeed="15.000000" departPos="0.000000" color="1,1,0"/>
<vehicle id="102" type="ASL_VTYPE" route="eastwest" depart="3062" departSpeed="15.000000" departPos="7.000000" color="1,1,0"/>
<vehicle id="103" type="ASL_VTYPE" route="eastwest" depart="3063" departSpeed="15.000000" departPos="0.000000" color="1,1,0"/>
<vehicle id="104" type="ASL_VTYPE" route="eastwest" depart="3122" departSpeed="15.000000" departPos="7.000000" color="1,1,0"/>
<vehicle id="105" type="ASL_VTYPE" route="eastwest" depart="3123" departSpeed="15.000000" departPos="0.000000" color="1,1,0"/>
<vehicle id="106" type="ASL_VTYPE" route="eastwest" depart="3182" departSpeed="15.000000" departPos="7.000000" color="1,1,0"/>
<vehicle id="107" type="ASL_VTYPE" route="eastwest" depart="3183" departSpeed="15.000000" departPos="0.000000" color="1,1,0"/>
<vehicle id="108" type="ASL_VTYPE" route="eastwest" depart="3242" departSpeed="15.000000" departPos="7.000000" color="1,1,0"/>
<vehicle id="109" type="ASL_VTYPE" route="eastwest" depart="3243" departSpeed="15.000000" departPos="0.000000" color="1,1,0"/>
<vehicle id="110" type="ASL_VTYPE" route="eastwest" depart="3302" departSpeed="15.000000" departPos="7.000000" color="1,1,0"/>
<vehicle id="111" type="ASL_VTYPE" route="eastwest" depart="3303" departSpeed="15.000000" departPos="0.000000" color="1,1,0"/>
<vehicle id="112" type="ASL_VTYPE" route="eastwest" depart="3362" departSpeed="15.000000" departPos="7.000000" color="1,1,0"/>
<vehicle id="113" type="ASL_VTYPE" route="eastwest" depart="3363" departSpeed="15.000000" departPos="0.000000" color="1,1,0"/>
<vehicle id="114" type="ASL_VTYPE" route="eastwest" depart="3422" departSpeed="15.000000" departPos="7.000000" color="1,1,0"/>
<vehicle id="115" type="ASL_VTYPE" route="eastwest" depart="3423" departSpeed="15.000000" departPos="0.000000" color="1,1,0"/>
<vehicle id="116" type="ASL_VTYPE" route="eastwest" depart="3482" departSpeed="15.000000" departPos="7.000000" color="1,1,0"/>
<vehicle id="117" type="ASL_VTYPE" route="eastwest" depart="3483" departSpeed="15.000000" departPos="0.000000" color="1,1,0"/>
<vehicle id="118" type="ASL_VTYPE" route="eastwest" depart="3542" departSpeed="15.000000" departPos="7.000000" color="1,1,0"/>
<vehicle id="119" type="ASL_VTYPE" route="eastwest" depart="3543" departSpeed="15.000000" departPos="0.000000" color="1,1,0"/>
<vehicle id="120" type="ASL_VTYPE" route="eastwest" depart="3602" departSpeed="15.000000" departPos="7.000000" color="1,1,0"/>
<vehicle id="121" type="ASL_VTYPE" route="eastwest" depart="3603" departSpeed="15.000000" departPos="0.000000" color="1,1,0"/>
<vehicle id="122" type="ASL_VTYPE" route="eastwest" depart="3662" departSpeed="15.000000" departPos="7.000000" color="1,1,0"/>
<vehicle id="123" type="ASL_VTYPE" route="eastwest" depart="3663" departSpeed="15.000000" departPos="0.000000" color="1,1,0"/>
<vehicle id="124" type="ASL_VTYPE" route="eastwest" depart="3722" departSpeed="15.000000" departPos="7.000000" color="1,1,0"/>
<vehicle id="125" type="ASL_VTYPE" route="eastwest" depart="3723" departSpeed="15.000000" departPos="0.000000" color="1,1,0"/>
<vehicle id="126" type="ASL_VTYPE" route="eastwest" depart="3782" departSpeed="15.000000" departPos="7.000000" color="1,1,0"/>
<vehicle id="127" type="ASL_VTYPE" route="eastwest" depart="3783" departSpeed="15.000000" departPos="0.000000" color="1,1,0"/>
<vehicle id="128" type="ASL_VTYPE" route="eastwest" depart="3842" departSpeed="15.000000" departPos="7.000000" color="1,1,0"/>
<vehicle id="129" type="ASL_VTYPE" route="eastwest" depart="3843" departSpeed="15.000000" departPos="0.000000" color="1,1,0"/>
<vehicle id="130" type="ASL_VTYPE" route="eastwest" depart="3902" departSpeed="15.000000" departPos="7.000000" color="1,1,0"/>
<vehicle id="131" type="ASL_VTYPE" route="eastwest" depart="3903" departSpeed="15.000000" departPos="0.000000" color="1,1,0"/>
<vehicle id="132" type="ASL_VTYPE" route="eastwest" depart="3962" departSpeed="15.000000" departPos="7.000000" color="1,1,0"/>
<vehicle id="133" type="ASL_VTYPE" route="eastwest" depart="3963" departSpeed="15.000000" departPos="0.000000" color="1,1,0"/>
<vehicle id="134" type="ASL_VTYPE" route="eastwest" depart="4022" departSpeed="15.000000" departPos="7.000000" color="1,1,0"/>
<vehicle id="135" type="ASL_VTYPE" route="eastwest" depart="4023" departSpeed="15.000000" departPos="0.000000" color="1,1,0"/>
<vehicle id="136" type="ASL_VTYPE" route="eastwest" depart="4082" departSpeed="15.000000" departPos="7.000000" color="1,1,0"/>
<vehicle id="137" type="ASL_VTYPE" route="eastwest" depart="4083" departSpeed="15.000000" departPos="0.000000" color="1,1,0"/>
<vehicle id="138" type="ASL_VTYPE" route="eastwest" depart="4142" departSpeed="15.000000" departPos="7.000000" color="1,1,0"/>
<vehicle id="139" type="ASL_VTYPE" route="eastwest" depart="4143" departSpeed="15.000000" departPos="0.000000" color="1,1,0"/>
<vehicle id="140" type="ASL_VTYPE" route="eastwest" depart="4202" departSpeed="15.000000" departPos="7.000000" color="1,1,0"/>
<vehicle id="141" type="ASL_VTYPE" route="eastwest" depart="4203" departSpeed="15.000000" departPos="0.000000" color="1,1,0"/>
<vehicle id="142" type="ASL_VTYPE" route="eastwest" depart="4262" departSpeed="15.000000" departPos="7.000000" color="1,1,0"/>
<vehicle id="143" type="ASL_VTYPE" route="eastwest" depart="4263" departSpeed="15.000000" departPos="0.000000" color="1,1,0"/>
<vehicle id="144" type="ASL_VTYPE" route="eastwest" depart="4322" departSpeed="15.000000" departPos="7.000000" color="1,1,0"/>
<vehicle id="145" type="ASL_VTYPE" route="eastwest" depart="4323" departSpeed="15.000000" departPos="0.000000" color="1,1,0"/>
<vehicle id="146" type="ASL_VTYPE" route="eastwest" depart="4382" departSpeed="15.000000" departPos="7.000000" color="1,1,0"/>
<vehicle id="147" type="ASL_VTYPE" route="eastwest" depart="4383" departSpeed="15.000000" departPos="0.000000" color="1,1,0"/>
<vehicle id="148" type="ASL_VTYPE" route="eastwest" depart="4442" departSpeed="15.000000" departPos="7.000000" color="1,1,0"/>
<vehicle id="149" type="ASL_VTYPE" route="eastwest" depart="4443" departSpeed="15.000000" departPos="0.000000" color="1,1,0"/>
<vehicle id="150" type="ASL_VTYPE" route="eastwest" depart="4502" departSpeed="15.000000" departPos="7.000000" color="1,1,0"/>
<vehicle id="151" type="ASL_VTYPE" route="eastwest" depart="4503" departSpeed="15.000000" departPos="0.000000" color="1,1,0"/>
<vehicle id="152" type="ASL_VTYPE" route="eastwest" depart="4562" departSpeed="15.000000" departPos="7.000000" color="1,1,0"/>
<vehicle id="153" type="ASL_VTYPE" route="eastwest" depart="4563" departSpeed="15.000000" departPos="0.000000" color="1,1,0"/>
<vehicle id="154" type="ASL_VTYPE" route="eastwest" depart="4622" departSpeed="15.000000" departPos="7.000000" color="1,1,0"/>
<vehicle id="155" type="ASL_VTYPE" route="eastwest" depart="4623" departSpeed="15.000000" departPos="0.000000" color="1,1,0"/>
<vehicle id="156" type="ASL_VTYPE" route="eastwest" depart="4682" departSpeed="15.000000" departPos="7.000000" color="1,1,0"/>
<vehicle id="157" type="ASL_VTYPE" route="eastwest" depart="4683" departSpeed="15.000000" departPos="0.000000" color="1,1,0"/>
<vehicle id="158" type="ASL_VTYPE" route="eastwest" depart="4742" departSpeed="15.000000" departPos="7.000000" color="1,1,0"/>
<vehicle id="159" type="ASL_VTYPE" route="eastwest" depart="4743" departSpeed="15.000000" departPos="0.000000" color="1,1,0"/>
<vehicle id="160" type="ASL_VTYPE" route="eastwest" depart="4802" departSpeed="15.000000" departPos="7.000000" color="1,1,0"/>
<vehicle id="161" type="ASL_VTYPE" route="eastwest" depart="4803" departSpeed="15.000000" departPos="0.000000" color="1,1,0"/>
<vehicle id="162" type="ASL_VTYPE" route="eastwest" depart="4862" departSpeed="15.000000" departPos="7.000000" color="1,1,0"/>
<vehicle id="163" type="ASL_VTYPE" route="eastwest" depart="4863" departSpeed="15.000000" departPos="0.000000" color="1,1,0"/>
<vehicle id="164" type="ASL_VTYPE" route="eastwest" depart="4922" departSpeed="15.000000" departPos="7.000000" color="1,1,0"/>
<vehicle id="165" type="ASL_VTYPE" route="eastwest" depart="4923" departSpeed="15.000000" departPos="0.000000" color="1,1,0"/>
<vehicle id="166" type="ASL_VTYPE" route="eastwest" depart="4982" departSpeed="15.000000" departPos="7.000000" color="1,1,0"/>
<vehicle id="167" type="ASL_VTYPE" route="eastwest" depart="4983" departSpeed="15.000000" departPos="0.000000" color="1,1,0"/>
<vehicle id="168" type="ASL_VTYPE" route="eastwest" depart="5042" departSpeed="15.000000" departPos="7.000000" color="1,1,0"/>
<vehicle id="169" type="ASL_VTYPE" route="eastwest" depart="5043" departSpeed="15.000000" departPos="0.000000" color="1,1,0"/>
<vehicle id="170" type="ASL_VTYPE" route="eastwest" depart="5102" departSpeed="15.000000" departPos="7.000000" color="1,1,0"/>
<vehicle id="171" type="ASL_VTYPE" route="eastwest" depart="5103" departSpeed="15.000000" departPos="0.000000" color="1,1,0"/>
<vehicle id="172" type="ASL_VTYPE" route="eastwest" depart="5162" departSpeed="15.000000" departPos="7.000000" color="1,1,0"/>
<vehicle id="173" type="ASL_VTYPE" route="eastwest" depart="5163" departSpeed="15.000000" departPos="0.000000" color="1,1,0"/>
<vehicle id="174" type="ASL_VTYPE" route="eastwest" depart="5222" departSpeed="15.000000" departPos="7.000000" color="1,1,0"/>
<vehicle id="175" type="ASL_VTYPE" route="eastwest" depart="5223" departSpeed="15.000000" departPos="0.000000" color="1,1,0"/>
<vehicle id="176" type="ASL_VTYPE" route="eastwest" depart="5282" departSpeed="15.000000" departPos="7.000000" color="1,1,0"/>
<vehicle id="177" type="ASL_VTYPE" route="eastwest" depart="5283" departSpeed="15.000000" departPos="0.000000" color="1,1,0"/>
<vehicle id="178" type="ASL_VTYPE" route="eastwest" depart="5342" departSpeed="15.000000" departPos="7.000000" color="1,1,0"/>
<vehicle id="179" type="ASL_VTYPE" route="eastwest" depart="5343" departSpeed="15.000000" departPos="0.000000" color="1,1,0"/>
<vehicle id="180" type="ASL_VTYPE" route="eastwest" depart="5402" departSpeed="15.000000" departPos="7.000000" color="1,1,0"/>
<vehicle id="181" type="ASL_VTYPE" route="eastwest" depart="5403" departSpeed="15.000000" departPos="0.000000" color="1,1,0"/>
<vehicle id="182" type="ASL_VTYPE" route="eastwest" depart="5462" departSpeed="15.000000" departPos="7.000000" color="1,1,0"/>
<vehicle id="183" type="ASL_VTYPE" route="eastwest" depart="5463" departSpeed="15.000000" departPos="0.000000" color="1,1,0"/>
<vehicle id="184" type="ASL_VTYPE" route="eastwest" depart="5522" departSpeed="15.000000" departPos="7.000000" color="1,1,0"/>
<vehicle id="185" type="ASL_VTYPE" route="eastwest" depart="5523" departSpeed="15.000000" departPos="0.000000" color="1,1,0"/>
<vehicle id="186" type="ASL_VTYPE" route="eastwest" depart="5582" departSpeed="15.000000" departPos="7.000000" color="1,1,0"/>
<vehicle id="187" type="ASL_VTYPE" route="eastwest" depart="5583" departSpeed="15.000000" departPos="0.000000" color="1,1,0"/>
<vehicle id="188" type="ASL_VTYPE" route="eastwest" depart="5642" departSpeed="15.000000" departPos="7.000000" color="1,1,0"/>
<vehicle id="189" type="ASL_VTYPE" route="eastwest" depart="5643" departSpeed="15.000000" departPos="0.000000" color="1,1,0"/>
<vehicle id="190" type="ASL_VTYPE" route="eastwest" depart="5702" departSpeed="15.000000" departPos="7.000000" color="1,1,0"/>
<vehicle id="191" type="ASL_VTYPE" route="eastwest" depart="5703" departSpeed="15.000000" departPos="0.000000" color="1,1,0"/>
<vehicle id="192" type="ASL_VTYPE" route="eastwest" depart="5762" departSpeed="15.000000" departPos="7.000000" color="1,1,0"/>
<vehicle id="193" type="ASL_VTYPE" route="eastwest" depart="5763" departSpeed="15.000000" departPos="0.000000" color="1,1,0"/>
<vehicle id="194" type="ASL_VTYPE" route="eastwest" depart="5822" departSpeed="15.000000" departPos="7.000000" color="1,1,0"/>
<vehicle id="195" type="ASL_VTYPE" route="eastwest" depart="5823" departSpeed="15.000000" departPos="0.000000" color="1,1,0"/>
<vehicle id="196" type="ASL_VTYPE" route="eastwest" depart="5882" departSpeed="15.000000" departPos="7.000000" color="1,1,0"/>
<vehicle id="197" type="ASL_VTYPE" route="eastwest" depart="5883" departSpeed="15.000000" departPos="0.000000" color="1,1,0"/>
<vehicle id="198" type="ASL_VTYPE" route="eastwest" depart="5942" departSpeed="15.000000" departPos="7.000000" color="1,1,0"/>
<vehicle id="199" type="ASL_VTYPE" route="eastwest" depart="5943" departSpeed="15.000000" departPos="0.000000" color="1,1,0"/>
<vehicle id="200" type="ASL_VTYPE" route="eastwest" depart="6002" departSpeed="15.000000" departPos="7.000000" color="1,1,0"/>
<vehicle id="201" type="ASL_VTYPE" route="eastwest" depart="6003" departSpeed="15.000000" departPos="0.000000" color="1,1,0"/>
<vehicle id="202" type="ASL_VTYPE" route="eastwest" depart="6062" departSpeed="15.000000" departPos="7.000000" color="1,1,0"/>
<vehicle id="203" type="ASL_VTYPE" route="eastwest" depart="6063" departSpeed="15.000000" departPos="0.000000" color="1,1,0"/>
<vehicle id="204" type="ASL_VTYPE" route="eastwest" depart="6122" departSpeed="15.000000" departPos="7.000000" color="1,1,0"/>
<vehicle id="205" type="ASL_VTYPE" route="eastwest" depart="6123" departSpeed="15.000000" departPos="0.000000" color="1,1,0"/>
<vehicle id="206" type="ASL_VTYPE" route="eastwest" depart="6182" departSpeed="15.000000" departPos="7.000000" color="1,1,0"/>
<vehicle id="207" type="ASL_VTYPE" route="eastwest" depart="6183" departSpeed="15.000000" departPos="0.000000" color="1,1,0"/>
<vehicle id="208" type="ASL_VTYPE" route="eastwest" depart="6242" departSpeed="15.000000" departPos="7.000000" color="1,1,0"/>
<vehicle id="209" type="ASL_VTYPE" route="eastwest" depart="6243" departSpeed="15.000000" departPos="0.000000" color="1,1,0"/>
<vehicle id="210" type="ASL_VTYPE" route="eastwest" depart="6302" departSpeed="15.000000" departPos="7.000000" color="1,1,0"/>
<vehicle id="211" type="ASL_VTYPE" route="eastwest" depart="6303" departSpeed="15.000000" departPos="0.000000" color="1,1,0"/>
<vehicle id="212" type="ASL_VTYPE" route="eastwest" depart="6362" departSpeed="15.000000" departPos="7.000000" color="1,1,0"/>
<vehicle id="213" type="ASL_VTYPE" route="eastwest" depart="6363" departSpeed="15.000000" departPos="0.000000" color="1,1,0"/>
<vehicle id="214" type="ASL_VTYPE" route="eastwest" depart="6422" departSpeed="15.000000" departPos="7.000000" color="1,1,0"/>
<vehicle id="215" type="ASL_VTYPE" route="eastwest" depart="6423" departSpeed="15.000000" departPos="0.000000" color="1,1,0"/>
<vehicle id="216" type="ASL_VTYPE" route="eastwest" depart="6482" departSpeed="15.000000" departPos="7.000000" color="1,1,0"/>
<vehicle id="217" type="ASL_VTYPE" route="eastwest" depart="6483" departSpeed="15.000000" departPos="0.000000" color="1,1,0"/>
<vehicle id="218" type="ASL_VTYPE" route="eastwest" depart="6542" departSpeed="15.000000" departPos="7.000000" color="1,1,0"/>
<vehicle id="219" type="ASL_VTYPE" route="eastwest" depart="6543" departSpeed="15.000000" departPos="0.000000" color="1,1,0"/>
<vehicle id="220" type="ASL_VTYPE" route="eastwest" depart="6602" departSpeed="15.000000" departPos="7.000000" color="1,1,0"/>
<vehicle id="221" type="ASL_VTYPE" route="eastwest" depart="6603" departSpeed="15.000000" departPos="0.000000" color="1,1,0"/>
<vehicle id="222" type="ASL_VTYPE" route="eastwest" depart="6662" departSpeed="15.000000" departPos="7.000000" color="1,1,0"/>