<?xml version="1.0" encoding="UTF-8"?>

<!-- generated on Fri 21 Feb 2020 03:20:42 PM PST by Eclipse SUMO netedit Version 1.4.0
<configuration xmlns:xsi="http://www.w3.org/2001/XMLSchema-instance" xsi:noNamespaceSchemaLocation="http://sumo.dlr.de/xsd/netconvertConfiguration.xsd">

    <input>
        <sumo-net-file value="asl_net.net.xml"/>
    </input>

    <output>
        <output-file value="/home/anthl10/Programming/sumo/tests/complex/tutorial/manhattan/data/asl_simple_net.net.xml"/>
    </output>

    <processing>
        <geometry.min-radius.fix.railways value="false"/>
        <geometry.max-grade.fix value="false"/>
        <offset.disable-normalization value="true"/>
        <lefthand value="false"/>
    </processing>

    <junctions>
        <no-turnarounds value="true"/>
        <junctions.corner-detail value="5"/>
        <junctions.limit-turn-speed value="5.5"/>
        <rectangular-lane-cut value="false"/>
    </junctions>

    <pedestrian>
        <walkingareas value="false"/>
    </pedestrian>

    <netedit>
        <route-files value="/home/anthl10/Programming/sumo/tests/complex/tutorial/manhattan/data/asl_routes_simple.rou.xml"/>
    </netedit>

    <report>
        <aggregate-warnings value="5"/>
    </report>

departPos="last"

</configuration>

DEPART SPEED IS KEY FOR THE NUMBER OF INITIAL VEHICLES IN THE ROADS
-->
<!-- carFollowModel="IDM" --> 
<routes xmlns:xsi="http://www.w3.org/2001/XMLSchema-instance" xsi:noNamespaceSchemaLocation="http://sumo.dlr.de/xsd/routes_file.xsd">
    <vType id="ASL_VTYPE" length="5.0" minGap="2.0" carFollowModel="IDM" accel="3" decel="3" tau="1.5" maxSpeed="15"/>
    <route id="eastwest" color="1,1,0" edges="H4G4 G4F4"/>
    <route id="northsouth" color="1,1,0" edges="G5G4 G4G3"/>
 <vehicle id="0" type="ASL_VTYPE" route="eastwest" depart="0" departSpeed="0.000000" departPos="0.000000" color="1,1,0"/>
<vehicle id="1" type="ASL_VTYPE" route="eastwest" depart="0" departSpeed="0.000000" departPos="20.210878" color="1,1,0"/>
<vehicle id="2" type="ASL_VTYPE" route="eastwest" depart="0" departSpeed="0.000000" departPos="32.193037" color="1,1,0"/>
<vehicle id="3" type="ASL_VTYPE" route="eastwest" depart="0" departSpeed="0.000000" departPos="49.176847" color="1,1,0"/>
<vehicle id="4" type="ASL_VTYPE" route="eastwest" depart="0" departSpeed="0.000000" departPos="56.176847" color="1,1,0"/>
<vehicle id="5" type="ASL_VTYPE" route="eastwest" depart="0" departSpeed="0.000000" departPos="63.176847" color="1,1,0"/>
<vehicle id="6" type="ASL_VTYPE" route="eastwest" depart="0" departSpeed="0.000000" departPos="70.176847" color="1,1,0"/>
<vehicle id="7" type="ASL_VTYPE" route="eastwest" depart="0" departSpeed="0.000000" departPos="77.176847" color="1,1,0"/>
<vehicle id="8" type="ASL_VTYPE" route="eastwest" depart="0" departSpeed="0.000000" departPos="86.278776" color="1,1,0"/>
<vehicle id="9" type="ASL_VTYPE" route="eastwest" depart="0" departSpeed="0.000000" departPos="96.157184" color="1,1,0"/>
<vehicle id="10" type="ASL_VTYPE" route="eastwest" depart="0" departSpeed="0.000000" departPos="103.157184" color="1,1,0"/>
<vehicle id="11" type="ASL_VTYPE" route="eastwest" depart="0" departSpeed="0.000000" departPos="110.157184" color="1,1,0"/>
<vehicle id="12" type="ASL_VTYPE" route="eastwest" depart="0" departSpeed="0.000000" departPos="117.157184" color="1,1,0"/>
<vehicle id="13" type="ASL_VTYPE" route="eastwest" depart="0" departSpeed="0.000000" departPos="131.132643" color="1,1,0"/>
<vehicle id="14" type="ASL_VTYPE" route="eastwest" depart="0" departSpeed="0.000000" departPos="138.132643" color="1,1,0"/>
<vehicle id="15" type="ASL_VTYPE" route="eastwest" depart="0" departSpeed="0.000000" departPos="145.132643" color="1,1,0"/>
<vehicle id="16" type="ASL_VTYPE" route="eastwest" depart="0" departSpeed="0.000000" departPos="157.176160" color="1,1,0"/>
<vehicle id="17" type="ASL_VTYPE" route="eastwest" depart="0" departSpeed="0.000000" departPos="164.176160" color="1,1,0"/>
<vehicle id="18" type="ASL_VTYPE" route="eastwest" depart="0" departSpeed="0.000000" departPos="185.036409" color="1,1,0"/>
<vehicle id="19" type="ASL_VTYPE" route="eastwest" depart="0" departSpeed="0.000000" departPos="192.036409" color="1,1,0"/>
<vehicle id="20" type="ASL_VTYPE" route="eastwest" depart="0" departSpeed="0.000000" departPos="207.074318" color="1,1,0"/>
<vehicle id="21" type="ASL_VTYPE" route="eastwest" depart="0" departSpeed="0.000000" departPos="224.158650" color="1,1,0"/>
<vehicle id="22" type="ASL_VTYPE" route="eastwest" depart="0" departSpeed="0.000000" departPos="238.418390" color="1,1,0"/>
<vehicle id="23" type="ASL_VTYPE" route="eastwest" depart="0" departSpeed="0.000000" departPos="251.844063" color="1,1,0"/>
<vehicle id="24" type="ASL_VTYPE" route="eastwest" depart="0" departSpeed="0.000000" departPos="258.844063" color="1,1,0"/>
<vehicle id="25" type="ASL_VTYPE" route="eastwest" depart="0" departSpeed="0.000000" departPos="271.929582" color="1,1,0"/>
<vehicle id="26" type="ASL_VTYPE" route="eastwest" depart="0" departSpeed="0.000000" departPos="278.929582" color="1,1,0"/>
<vehicle id="27" type="ASL_VTYPE" route="eastwest" depart="0" departSpeed="0.000000" departPos="285.929582" color="1,1,0"/>
<vehicle id="28" type="ASL_VTYPE" route="eastwest" depart="0" departSpeed="0.000000" departPos="292.929582" color="1,1,0"/>
<vehicle id="29" type="ASL_VTYPE" route="eastwest" depart="0" departSpeed="0.000000" departPos="299.929582" color="1,1,0"/>

</routes>
