<?xml version="1.0" encoding="UTF-8"?>

<!-- generated on Fri 21 Feb 2020 03:20:42 PM PST by Eclipse SUMO netedit Version 1.4.0
<configuration xmlns:xsi="http://www.w3.org/2001/XMLSchema-instance" xsi:noNamespaceSchemaLocation="http://sumo.dlr.de/xsd/netconvertConfiguration.xsd">

    <input>
        <sumo-net-file value="asl_net.net.xml"/>
    </input>

    <output>
        <output-file value="/home/anthl10/Programming/sumo/tests/complex/tutorial/manhattan/data/asl_simple_net.net.xml"/>
    </output>

    <processing>
        <geometry.min-radius.fix.railways value="false"/>
        <geometry.max-grade.fix value="false"/>
        <offset.disable-normalization value="true"/>
        <lefthand value="false"/>
    </processing>

    <junctions>
        <no-turnarounds value="true"/>
        <junctions.corner-detail value="5"/>
        <junctions.limit-turn-speed value="5.5"/>
        <rectangular-lane-cut value="false"/>
    </junctions>

    <pedestrian>
        <walkingareas value="false"/>
    </pedestrian>

    <netedit>
        <route-files value="/home/anthl10/Programming/sumo/tests/complex/tutorial/manhattan/data/asl_routes_simple.rou.xml"/>
    </netedit>

    <report>
        <aggregate-warnings value="5"/>
    </report>

departPos="last"

</configuration>

DEPART SPEED IS KEY FOR THE NUMBER OF INITIAL VEHICLES IN THE ROADS
-->
<!-- carFollowModel="IDM" --> 
<routes xmlns:xsi="http://www.w3.org/2001/XMLSchema-instance" xsi:noNamespaceSchemaLocation="http://sumo.dlr.de/xsd/routes_file.xsd">
    <vType id="ASL_VTYPE" length="5.0" minGap="2.0" carFollowModel="IDM" accel="3" decel="3" tau="1.5" maxSpeed="15"/>
    <route id="eastwest" color="1,1,0" edges="H4G4 G4F4"/>
    <route id="northsouth" color="1,1,0" edges="G5G4 G4G3"/>

     <vehicle id="0" type="ASL_VTYPE" route="eastwest" depart="0" departSpeed="0.000000" departPos="0.000000" color="1,1,0"/>
<vehicle id="1" type="ASL_VTYPE" route="eastwest" depart="0" departSpeed="0.000000" departPos="7.000000" color="1,1,0"/>
<vehicle id="2" type="ASL_VTYPE" route="eastwest" depart="0" departSpeed="0.000000" departPos="14.000000" color="1,1,0"/>
<vehicle id="3" type="ASL_VTYPE" route="eastwest" depart="0" departSpeed="0.000000" departPos="21.000000" color="1,1,0"/>
<vehicle id="4" type="ASL_VTYPE" route="eastwest" depart="0" departSpeed="0.000000" departPos="28.000000" color="1,1,0"/>
<vehicle id="5" type="ASL_VTYPE" route="eastwest" depart="0" departSpeed="0.000000" departPos="36.093005" color="1,1,0"/>
<vehicle id="6" type="ASL_VTYPE" route="eastwest" depart="0" departSpeed="0.000000" departPos="46.262953" color="1,1,0"/>
<vehicle id="7" type="ASL_VTYPE" route="eastwest" depart="0" departSpeed="0.000000" departPos="55.883051" color="1,1,0"/>
<vehicle id="8" type="ASL_VTYPE" route="eastwest" depart="0" departSpeed="0.000000" departPos="64.923044" color="1,1,0"/>
<vehicle id="9" type="ASL_VTYPE" route="eastwest" depart="0" departSpeed="0.000000" departPos="71.923044" color="1,1,0"/>
<vehicle id="10" type="ASL_VTYPE" route="eastwest" depart="0" departSpeed="0.000000" departPos="78.976303" color="1,1,0"/>
<vehicle id="11" type="ASL_VTYPE" route="eastwest" depart="0" departSpeed="0.000000" departPos="85.976303" color="1,1,0"/>
<vehicle id="12" type="ASL_VTYPE" route="eastwest" depart="0" departSpeed="0.000000" departPos="92.976303" color="1,1,0"/>
<vehicle id="13" type="ASL_VTYPE" route="eastwest" depart="0" departSpeed="0.000000" departPos="100.196274" color="1,1,0"/>
<vehicle id="14" type="ASL_VTYPE" route="eastwest" depart="0" departSpeed="0.000000" departPos="114.537336" color="1,1,0"/>
<vehicle id="15" type="ASL_VTYPE" route="eastwest" depart="0" departSpeed="0.000000" departPos="121.537336" color="1,1,0"/>
<vehicle id="16" type="ASL_VTYPE" route="eastwest" depart="0" departSpeed="0.000000" departPos="138.515421" color="1,1,0"/>
<vehicle id="17" type="ASL_VTYPE" route="eastwest" depart="0" departSpeed="0.000000" departPos="145.515421" color="1,1,0"/>
<vehicle id="18" type="ASL_VTYPE" route="eastwest" depart="0" departSpeed="0.000000" departPos="152.515421" color="1,1,0"/>
<vehicle id="19" type="ASL_VTYPE" route="eastwest" depart="0" departSpeed="0.000000" departPos="159.515421" color="1,1,0"/>
<vehicle id="20" type="ASL_VTYPE" route="eastwest" depart="0" departSpeed="0.000000" departPos="172.763057" color="1,1,0"/>
<vehicle id="21" type="ASL_VTYPE" route="eastwest" depart="0" departSpeed="0.000000" departPos="190.851262" color="1,1,0"/>
<vehicle id="22" type="ASL_VTYPE" route="eastwest" depart="0" departSpeed="0.000000" departPos="197.851262" color="1,1,0"/>
<vehicle id="23" type="ASL_VTYPE" route="eastwest" depart="0" departSpeed="0.000000" departPos="204.851262" color="1,1,0"/>
<vehicle id="24" type="ASL_VTYPE" route="eastwest" depart="0" departSpeed="0.000000" departPos="211.851262" color="1,1,0"/>
<vehicle id="25" type="ASL_VTYPE" route="eastwest" depart="0" departSpeed="0.000000" departPos="229.585570" color="1,1,0"/>
<vehicle id="26" type="ASL_VTYPE" route="eastwest" depart="0" departSpeed="0.000000" departPos="236.585570" color="1,1,0"/>
<vehicle id="27" type="ASL_VTYPE" route="eastwest" depart="0" departSpeed="0.000000" departPos="252.827629" color="1,1,0"/>
<vehicle id="28" type="ASL_VTYPE" route="eastwest" depart="0" departSpeed="0.000000" departPos="272.789135" color="1,1,0"/>
<vehicle id="29" type="ASL_VTYPE" route="eastwest" depart="0" departSpeed="0.000000" departPos="283.579654" color="1,1,0"/>
<vehicle id="30" type="ASL_VTYPE" route="eastwest" depart="0" departSpeed="0.000000" departPos="303.778627" color="1,1,0"/>
<vehicle id="31" type="ASL_VTYPE" route="eastwest" depart="0" departSpeed="0.000000" departPos="310.778627" color="1,1,0"/>
<vehicle id="32" type="ASL_VTYPE" route="eastwest" depart="0" departSpeed="0.000000" departPos="317.778627" color="1,1,0"/>
<vehicle id="33" type="ASL_VTYPE" route="eastwest" depart="0" departSpeed="0.000000" departPos="324.778627" color="1,1,0"/>
<vehicle id="34" type="ASL_VTYPE" route="eastwest" depart="0" departSpeed="0.000000" departPos="331.778627" color="1,1,0"/>
<vehicle id="35" type="ASL_VTYPE" route="eastwest" depart="0" departSpeed="0.000000" departPos="340.339170" color="1,1,0"/>
<vehicle id="36" type="ASL_VTYPE" route="eastwest" depart="0" departSpeed="0.000000" departPos="347.339170" color="1,1,0"/>
<vehicle id="37" type="ASL_VTYPE" route="eastwest" depart="0" departSpeed="0.000000" departPos="363.270991" color="1,1,0"/>
<vehicle id="38" type="ASL_VTYPE" route="eastwest" depart="0" departSpeed="0.000000" departPos="370.270991" color="1,1,0"/>
<vehicle id="39" type="ASL_VTYPE" route="eastwest" depart="0" departSpeed="0.000000" departPos="380.450510" color="1,1,0"/>
<vehicle id="40" type="ASL_VTYPE" route="eastwest" depart="0" departSpeed="0.000000" departPos="397.026867" color="1,1,0"/>
<vehicle id="41" type="ASL_VTYPE" route="eastwest" depart="0" departSpeed="0.000000" departPos="404.026867" color="1,1,0"/>
<vehicle id="42" type="ASL_VTYPE" route="eastwest" depart="0" departSpeed="0.000000" departPos="414.533537" color="1,1,0"/>
<vehicle id="43" type="ASL_VTYPE" route="eastwest" depart="0" departSpeed="0.000000" departPos="422.229974" color="1,1,0"/>
<vehicle id="44" type="ASL_VTYPE" route="eastwest" depart="0" departSpeed="0.000000" departPos="433.429955" color="1,1,0"/>
<vehicle id="45" type="ASL_VTYPE" route="eastwest" depart="0" departSpeed="0.000000" departPos="440.429955" color="1,1,0"/>
<vehicle id="46" type="ASL_VTYPE" route="eastwest" depart="0" departSpeed="0.000000" departPos="449.240523" color="1,1,0"/>
<vehicle id="47" type="ASL_VTYPE" route="eastwest" depart="0" departSpeed="0.000000" departPos="457.164023" color="1,1,0"/>
<vehicle id="48" type="ASL_VTYPE" route="eastwest" depart="0" departSpeed="0.000000" departPos="469.129123" color="1,1,0"/>
<vehicle id="49" type="ASL_VTYPE" route="eastwest" depart="0" departSpeed="0.000000" departPos="482.263407" color="1,1,0"/>
<vehicle id="50" type="ASL_VTYPE" route="eastwest" depart="0" departSpeed="0.000000" departPos="492.246874" color="1,1,0"/>
<vehicle id="51" type="ASL_VTYPE" route="eastwest" depart="0" departSpeed="0.000000" departPos="500.107704" color="1,1,0"/>
<vehicle id="52" type="ASL_VTYPE" route="eastwest" depart="0" departSpeed="0.000000" departPos="507.107704" color="1,1,0"/>
<vehicle id="53" type="ASL_VTYPE" route="eastwest" depart="0" departSpeed="0.000000" departPos="514.107704" color="1,1,0"/>
<vehicle id="54" type="ASL_VTYPE" route="eastwest" depart="0" departSpeed="0.000000" departPos="521.107704" color="1,1,0"/>
<vehicle id="55" type="ASL_VTYPE" route="eastwest" depart="0" departSpeed="0.000000" departPos="528.107704" color="1,1,0"/>
<vehicle id="56" type="ASL_VTYPE" route="eastwest" depart="0" departSpeed="0.000000" departPos="543.729327" color="1,1,0"/>
<vehicle id="57" type="ASL_VTYPE" route="eastwest" depart="0" departSpeed="0.000000" departPos="551.304171" color="1,1,0"/>
<vehicle id="58" type="ASL_VTYPE" route="eastwest" depart="0" departSpeed="0.000000" departPos="558.304171" color="1,1,0"/>
<vehicle id="59" type="ASL_VTYPE" route="eastwest" depart="0" departSpeed="0.000000" departPos="565.304171" color="1,1,0"/>

</routes>
