<?xml version="1.0" encoding="UTF-8"?>

<!-- generated on Fri 21 Feb 2020 03:20:42 PM PST by Eclipse SUMO netedit Version 1.4.0
<configuration xmlns:xsi="http://www.w3.org/2001/XMLSchema-instance" xsi:noNamespaceSchemaLocation="http://sumo.dlr.de/xsd/netconvertConfiguration.xsd">

    <input>
        <sumo-net-file value="asl_net.net.xml"/>
    </input>

    <output>
        <output-file value="/home/anthl10/Programming/sumo/tests/complex/tutorial/manhattan/data/asl_simple_net.net.xml"/>
    </output>

    <processing>
        <geometry.min-radius.fix.railways value="false"/>
        <geometry.max-grade.fix value="false"/>
        <offset.disable-normalization value="true"/>
        <lefthand value="false"/>
    </processing>

    <junctions>
        <no-turnarounds value="true"/>
        <junctions.corner-detail value="5"/>
        <junctions.limit-turn-speed value="5.5"/>
        <rectangular-lane-cut value="false"/>
    </junctions>

    <pedestrian>
        <walkingareas value="false"/>
    </pedestrian>

    <netedit>
        <route-files value="/home/anthl10/Programming/sumo/tests/complex/tutorial/manhattan/data/asl_routes_simple.rou.xml"/>
    </netedit>

    <report>
        <aggregate-warnings value="5"/>
    </report>

departPos="last"

</configuration>

DEPART SPEED IS KEY FOR THE NUMBER OF INITIAL VEHICLES IN THE ROADS
-->
<!-- carFollowModel="IDM" --> 
<routes xmlns:xsi="http://www.w3.org/2001/XMLSchema-instance" xsi:noNamespaceSchemaLocation="http://sumo.dlr.de/xsd/routes_file.xsd">
    <vType id="ASL_VTYPE" length="5.0" minGap="2.0" carFollowModel="IDM" accel="1" decel="3" tau="1.5" maxSpeed="15"/>
    <route id="eastwest" color="1,1,0" edges="H4G4 G4F4"/>
    <route id="northsouth" color="1,1,0" edges="G5G4 G4G3"/>
   
    <vehicle id="0" type="ASL_VTYPE" route="eastwest" depart="0" departSpeed="0.000000" departPos="0.000000" color="1,1,0"/>      
<vehicle id="1" type="ASL_VTYPE" route="eastwest" depart="0" departSpeed="0.000000" departPos="7.000000" color="1,1,0"/>
<vehicle id="2" type="ASL_VTYPE" route="eastwest" depart="0" departSpeed="0.000000" departPos="14.000000" color="1,1,0"/>
<vehicle id="3" type="ASL_VTYPE" route="eastwest" depart="0" departSpeed="0.000000" departPos="21.000000" color="1,1,0"/>
<vehicle id="4" type="ASL_VTYPE" route="eastwest" depart="0" departSpeed="0.000000" departPos="28.000000" color="1,1,0"/>
<vehicle id="5" type="ASL_VTYPE" route="eastwest" depart="0" departSpeed="0.000000" departPos="39.017719" color="1,1,0"/>
<vehicle id="6" type="ASL_VTYPE" route="eastwest" depart="0" departSpeed="0.000000" departPos="46.017719" color="1,1,0"/>
<vehicle id="7" type="ASL_VTYPE" route="eastwest" depart="0" departSpeed="0.000000" departPos="53.017719" color="1,1,0"/>
<vehicle id="8" type="ASL_VTYPE" route="eastwest" depart="0" departSpeed="0.000000" departPos="60.017719" color="1,1,0"/>
<vehicle id="9" type="ASL_VTYPE" route="eastwest" depart="0" departSpeed="0.000000" departPos="67.017719" color="1,1,0"/>
<vehicle id="10" type="ASL_VTYPE" route="eastwest" depart="0" departSpeed="0.000000" departPos="74.017719" color="1,1,0"/>
<vehicle id="11" type="ASL_VTYPE" route="eastwest" depart="0" departSpeed="0.000000" departPos="83.615996" color="1,1,0"/>
<vehicle id="12" type="ASL_VTYPE" route="eastwest" depart="0" departSpeed="0.000000" departPos="98.250735" color="1,1,0"/>
<vehicle id="13" type="ASL_VTYPE" route="eastwest" depart="0" departSpeed="0.000000" departPos="105.250735" color="1,1,0"/>
<vehicle id="14" type="ASL_VTYPE" route="eastwest" depart="0" departSpeed="0.000000" departPos="112.250735" color="1,1,0"/>
<vehicle id="15" type="ASL_VTYPE" route="eastwest" depart="0" departSpeed="0.000000" departPos="119.250735" color="1,1,0"/>
<vehicle id="16" type="ASL_VTYPE" route="eastwest" depart="0" departSpeed="0.000000" departPos="126.250735" color="1,1,0"/>
<vehicle id="17" type="ASL_VTYPE" route="eastwest" depart="0" departSpeed="0.000000" departPos="144.898053" color="1,1,0"/>
<vehicle id="18" type="ASL_VTYPE" route="eastwest" depart="0" departSpeed="0.000000" departPos="158.164087" color="1,1,0"/>
<vehicle id="19" type="ASL_VTYPE" route="eastwest" depart="0" departSpeed="0.000000" departPos="165.164087" color="1,1,0"/>
<vehicle id="20" type="ASL_VTYPE" route="eastwest" depart="0" departSpeed="0.000000" departPos="177.347359" color="1,1,0"/>
<vehicle id="21" type="ASL_VTYPE" route="eastwest" depart="0" departSpeed="0.000000" departPos="190.550981" color="1,1,0"/>
<vehicle id="22" type="ASL_VTYPE" route="eastwest" depart="0" departSpeed="0.000000" departPos="197.550981" color="1,1,0"/>
<vehicle id="23" type="ASL_VTYPE" route="eastwest" depart="0" departSpeed="0.000000" departPos="204.764006" color="1,1,0"/>
<vehicle id="24" type="ASL_VTYPE" route="eastwest" depart="0" departSpeed="0.000000" departPos="216.175821" color="1,1,0"/>
<vehicle id="25" type="ASL_VTYPE" route="eastwest" depart="0" departSpeed="0.000000" departPos="223.175821" color="1,1,0"/>
<vehicle id="26" type="ASL_VTYPE" route="eastwest" depart="0" departSpeed="0.000000" departPos="236.360487" color="1,1,0"/>
<vehicle id="27" type="ASL_VTYPE" route="eastwest" depart="0" departSpeed="0.000000" departPos="254.412005" color="1,1,0"/>
<vehicle id="28" type="ASL_VTYPE" route="eastwest" depart="0" departSpeed="0.000000" departPos="263.158742" color="1,1,0"/>
<vehicle id="29" type="ASL_VTYPE" route="eastwest" depart="0" departSpeed="0.000000" departPos="276.882634" color="1,1,0"/>
<vehicle id="30" type="ASL_VTYPE" route="eastwest" depart="0" departSpeed="0.000000" departPos="283.882634" color="1,1,0"/>
<vehicle id="31" type="ASL_VTYPE" route="eastwest" depart="0" departSpeed="0.000000" departPos="297.278163" color="1,1,0"/>
<vehicle id="32" type="ASL_VTYPE" route="eastwest" depart="0" departSpeed="0.000000" departPos="304.278163" color="1,1,0"/>
<vehicle id="33" type="ASL_VTYPE" route="eastwest" depart="0" departSpeed="0.000000" departPos="311.278163" color="1,1,0"/>
<vehicle id="34" type="ASL_VTYPE" route="eastwest" depart="0" departSpeed="0.000000" departPos="323.968469" color="1,1,0"/>
<vehicle id="35" type="ASL_VTYPE" route="eastwest" depart="0" departSpeed="0.000000" departPos="330.968469" color="1,1,0"/>
<vehicle id="36" type="ASL_VTYPE" route="eastwest" depart="0" departSpeed="0.000000" departPos="337.968469" color="1,1,0"/>
<vehicle id="37" type="ASL_VTYPE" route="eastwest" depart="0" departSpeed="0.000000" departPos="344.968469" color="1,1,0"/>
<vehicle id="38" type="ASL_VTYPE" route="eastwest" depart="0" departSpeed="0.000000" departPos="351.968469" color="1,1,0"/>
<vehicle id="39" type="ASL_VTYPE" route="eastwest" depart="0" departSpeed="0.000000" departPos="358.968469" color="1,1,0"/>

</routes>
