<?xml version="1.0" encoding="UTF-8"?>

<!-- generated on Fri 21 Feb 2020 03:20:42 PM PST by Eclipse SUMO netedit Version 1.4.0
<configuration xmlns:xsi="http://www.w3.org/2001/XMLSchema-instance" xsi:noNamespaceSchemaLocation="http://sumo.dlr.de/xsd/netconvertConfiguration.xsd">

    <input>
        <sumo-net-file value="asl_net.net.xml"/>
    </input>

    <output>
        <output-file value="/home/anthl10/Programming/sumo/tests/complex/tutorial/manhattan/data/asl_simple_net.net.xml"/>
    </output>

    <processing>
        <geometry.min-radius.fix.railways value="false"/>
        <geometry.max-grade.fix value="false"/>
        <offset.disable-normalization value="true"/>
        <lefthand value="false"/>
    </processing>

    <junctions>
        <no-turnarounds value="true"/>
        <junctions.corner-detail value="5"/>
        <junctions.limit-turn-speed value="5.5"/>
        <rectangular-lane-cut value="false"/>
    </junctions>

    <pedestrian>
        <walkingareas value="false"/>
    </pedestrian>

    <netedit>
        <route-files value="/home/anthl10/Programming/sumo/tests/complex/tutorial/manhattan/data/asl_routes_simple.rou.xml"/>
    </netedit>

    <report>
        <aggregate-warnings value="5"/>
    </report>

departPos="last"

</configuration>

DEPART SPEED IS KEY FOR THE NUMBER OF INITIAL VEHICLES IN THE ROADS
-->
<!-- carFollowModel="IDM" --> 
<routes xmlns:xsi="http://www.w3.org/2001/XMLSchema-instance" xsi:noNamespaceSchemaLocation="http://sumo.dlr.de/xsd/routes_file.xsd">
    <vType id="ASL_VTYPE" length="5.0" minGap="2.0" carFollowModel="IDM" accel="1" decel="3" tau="1.5" maxSpeed="15"/>
    <route id="eastwest" color="1,1,0" edges="H4G4 G4F4"/>
    <route id="northsouth" color="1,1,0" edges="G5G4 G4G3"/>
     <vehicle id="0" type="ASL_VTYPE" route="eastwest" depart="0" departSpeed="0.000000" departPos="0.000000" color="1,1,0"/>
<vehicle id="1" type="ASL_VTYPE" route="eastwest" depart="0" departSpeed="0.000000" departPos="10.916642" color="1,1,0"/>
<vehicle id="2" type="ASL_VTYPE" route="eastwest" depart="0" departSpeed="0.000000" departPos="19.522866" color="1,1,0"/>
<vehicle id="3" type="ASL_VTYPE" route="eastwest" depart="0" departSpeed="0.000000" departPos="32.963520" color="1,1,0"/>
<vehicle id="4" type="ASL_VTYPE" route="eastwest" depart="0" departSpeed="0.000000" departPos="52.956295" color="1,1,0"/>
<vehicle id="5" type="ASL_VTYPE" route="eastwest" depart="0" departSpeed="0.000000" departPos="59.956295" color="1,1,0"/>
<vehicle id="6" type="ASL_VTYPE" route="eastwest" depart="0" departSpeed="0.000000" departPos="72.311696" color="1,1,0"/>
<vehicle id="7" type="ASL_VTYPE" route="eastwest" depart="0" departSpeed="0.000000" departPos="81.925708" color="1,1,0"/>
<vehicle id="8" type="ASL_VTYPE" route="eastwest" depart="0" departSpeed="0.000000" departPos="96.092449" color="1,1,0"/>
<vehicle id="9" type="ASL_VTYPE" route="eastwest" depart="0" departSpeed="0.000000" departPos="103.092449" color="1,1,0"/>
<vehicle id="10" type="ASL_VTYPE" route="eastwest" depart="0" departSpeed="0.000000" departPos="110.092449" color="1,1,0"/>
<vehicle id="11" type="ASL_VTYPE" route="eastwest" depart="0" departSpeed="0.000000" departPos="118.640074" color="1,1,0"/>
<vehicle id="12" type="ASL_VTYPE" route="eastwest" depart="0" departSpeed="0.000000" departPos="125.640074" color="1,1,0"/>
<vehicle id="13" type="ASL_VTYPE" route="eastwest" depart="0" departSpeed="0.000000" departPos="141.894545" color="1,1,0"/>
<vehicle id="14" type="ASL_VTYPE" route="eastwest" depart="0" departSpeed="0.000000" departPos="149.725055" color="1,1,0"/>
<vehicle id="15" type="ASL_VTYPE" route="eastwest" depart="0" departSpeed="0.000000" departPos="156.725055" color="1,1,0"/>
<vehicle id="16" type="ASL_VTYPE" route="eastwest" depart="0" departSpeed="0.000000" departPos="163.725055" color="1,1,0"/>
<vehicle id="17" type="ASL_VTYPE" route="eastwest" depart="0" departSpeed="0.000000" departPos="170.725055" color="1,1,0"/>
<vehicle id="18" type="ASL_VTYPE" route="eastwest" depart="0" departSpeed="0.000000" departPos="182.790351" color="1,1,0"/>
<vehicle id="19" type="ASL_VTYPE" route="eastwest" depart="0" departSpeed="0.000000" departPos="189.790351" color="1,1,0"/>
<vehicle id="20" type="ASL_VTYPE" route="eastwest" depart="0" departSpeed="0.000000" departPos="199.072571" color="1,1,0"/>
<vehicle id="21" type="ASL_VTYPE" route="eastwest" depart="0" departSpeed="0.000000" departPos="209.521418" color="1,1,0"/>
<vehicle id="22" type="ASL_VTYPE" route="eastwest" depart="0" departSpeed="0.000000" departPos="217.368160" color="1,1,0"/>
<vehicle id="23" type="ASL_VTYPE" route="eastwest" depart="0" departSpeed="0.000000" departPos="225.819725" color="1,1,0"/>
<vehicle id="24" type="ASL_VTYPE" route="eastwest" depart="0" departSpeed="0.000000" departPos="232.819725" color="1,1,0"/>
<vehicle id="25" type="ASL_VTYPE" route="eastwest" depart="0" departSpeed="0.000000" departPos="247.093433" color="1,1,0"/>
<vehicle id="26" type="ASL_VTYPE" route="eastwest" depart="0" departSpeed="0.000000" departPos="254.093433" color="1,1,0"/>
<vehicle id="27" type="ASL_VTYPE" route="eastwest" depart="0" departSpeed="0.000000" departPos="261.093433" color="1,1,0"/>
<vehicle id="28" type="ASL_VTYPE" route="eastwest" depart="0" departSpeed="0.000000" departPos="268.093433" color="1,1,0"/>
<vehicle id="29" type="ASL_VTYPE" route="eastwest" depart="0" departSpeed="0.000000" departPos="275.093433" color="1,1,0"/>
<vehicle id="30" type="ASL_VTYPE" route="eastwest" depart="0" departSpeed="0.000000" departPos="291.027894" color="1,1,0"/>
<vehicle id="31" type="ASL_VTYPE" route="eastwest" depart="0" departSpeed="0.000000" departPos="318.130962" color="1,1,0"/>
<vehicle id="32" type="ASL_VTYPE" route="eastwest" depart="0" departSpeed="0.000000" departPos="329.050523" color="1,1,0"/>
<vehicle id="33" type="ASL_VTYPE" route="eastwest" depart="0" departSpeed="0.000000" departPos="336.050523" color="1,1,0"/>
<vehicle id="34" type="ASL_VTYPE" route="eastwest" depart="0" departSpeed="0.000000" departPos="343.050523" color="1,1,0"/>
<vehicle id="35" type="ASL_VTYPE" route="eastwest" depart="0" departSpeed="0.000000" departPos="353.427669" color="1,1,0"/>
<vehicle id="36" type="ASL_VTYPE" route="eastwest" depart="0" departSpeed="0.000000" departPos="362.781032" color="1,1,0"/>
<vehicle id="37" type="ASL_VTYPE" route="eastwest" depart="0" departSpeed="0.000000" departPos="369.781032" color="1,1,0"/>
<vehicle id="38" type="ASL_VTYPE" route="eastwest" depart="0" departSpeed="0.000000" departPos="376.781032" color="1,1,0"/>
<vehicle id="39" type="ASL_VTYPE" route="eastwest" depart="0" departSpeed="0.000000" departPos="383.781032" color="1,1,0"/>
<vehicle id="40" type="ASL_VTYPE" route="eastwest" depart="0" departSpeed="0.000000" departPos="393.205414" color="1,1,0"/>
<vehicle id="41" type="ASL_VTYPE" route="eastwest" depart="0" departSpeed="0.000000" departPos="400.205414" color="1,1,0"/>
<vehicle id="42" type="ASL_VTYPE" route="eastwest" depart="0" departSpeed="0.000000" departPos="407.205414" color="1,1,0"/>
<vehicle id="43" type="ASL_VTYPE" route="eastwest" depart="0" departSpeed="0.000000" departPos="414.205414" color="1,1,0"/>
<vehicle id="44" type="ASL_VTYPE" route="eastwest" depart="0" departSpeed="0.000000" departPos="421.205414" color="1,1,0"/>
<vehicle id="45" type="ASL_VTYPE" route="eastwest" depart="0" departSpeed="0.000000" departPos="428.205414" color="1,1,0"/>
<vehicle id="46" type="ASL_VTYPE" route="eastwest" depart="0" departSpeed="0.000000" departPos="435.205414" color="1,1,0"/>
<vehicle id="47" type="ASL_VTYPE" route="eastwest" depart="0" departSpeed="0.000000" departPos="442.205414" color="1,1,0"/>
<vehicle id="48" type="ASL_VTYPE" route="eastwest" depart="0" departSpeed="0.000000" departPos="449.205414" color="1,1,0"/>
<vehicle id="49" type="ASL_VTYPE" route="eastwest" depart="0" departSpeed="0.000000" departPos="456.396640" color="1,1,0"/>
<vehicle id="50" type="ASL_VTYPE" route="eastwest" depart="0" departSpeed="0.000000" departPos="471.433532" color="1,1,0"/>
<vehicle id="51" type="ASL_VTYPE" route="eastwest" depart="0" departSpeed="0.000000" departPos="485.448057" color="1,1,0"/>
<vehicle id="52" type="ASL_VTYPE" route="eastwest" depart="0" departSpeed="0.000000" departPos="493.007699" color="1,1,0"/>
<vehicle id="53" type="ASL_VTYPE" route="eastwest" depart="0" departSpeed="0.000000" departPos="500.007699" color="1,1,0"/>
<vehicle id="54" type="ASL_VTYPE" route="eastwest" depart="0" departSpeed="0.000000" departPos="510.434619" color="1,1,0"/>
<vehicle id="55" type="ASL_VTYPE" route="eastwest" depart="0" departSpeed="0.000000" departPos="525.269633" color="1,1,0"/>
<vehicle id="56" type="ASL_VTYPE" route="eastwest" depart="0" departSpeed="0.000000" departPos="532.269633" color="1,1,0"/>
<vehicle id="57" type="ASL_VTYPE" route="eastwest" depart="0" departSpeed="0.000000" departPos="539.269633" color="1,1,0"/>
<vehicle id="58" type="ASL_VTYPE" route="eastwest" depart="0" departSpeed="0.000000" departPos="546.269633" color="1,1,0"/>
<vehicle id="59" type="ASL_VTYPE" route="eastwest" depart="0" departSpeed="0.000000" departPos="556.665753" color="1,1,0"/>

</routes>
