<?xml version="1.0" encoding="UTF-8"?>

<!-- generated on Fri 21 Feb 2020 03:20:42 PM PST by Eclipse SUMO netedit Version 1.4.0
<configuration xmlns:xsi="http://www.w3.org/2001/XMLSchema-instance" xsi:noNamespaceSchemaLocation="http://sumo.dlr.de/xsd/netconvertConfiguration.xsd">

    <input>
        <sumo-net-file value="asl_net.net.xml"/>
    </input>

    <output>
        <output-file value="/home/anthl10/Programming/sumo/tests/complex/tutorial/manhattan/data/asl_simple_net.net.xml"/>
    </output>

    <processing>
        <geometry.min-radius.fix.railways value="false"/>
        <geometry.max-grade.fix value="false"/>
        <offset.disable-normalization value="true"/>
        <lefthand value="false"/>
    </processing>

    <junctions>
        <no-turnarounds value="true"/>
        <junctions.corner-detail value="5"/>
        <junctions.limit-turn-speed value="5.5"/>
        <rectangular-lane-cut value="false"/>
    </junctions>

    <pedestrian>
        <walkingareas value="false"/>
    </pedestrian>

    <netedit>
        <route-files value="/home/anthl10/Programming/sumo/tests/complex/tutorial/manhattan/data/asl_routes_simple.rou.xml"/>
    </netedit>

    <report>
        <aggregate-warnings value="5"/>
    </report>

departPos="last"

</configuration>

DEPART SPEED IS KEY FOR THE NUMBER OF INITIAL VEHICLES IN THE ROADS
-->
<!-- carFollowModel="IDM" --> 
<routes xmlns:xsi="http://www.w3.org/2001/XMLSchema-instance" xsi:noNamespaceSchemaLocation="http://sumo.dlr.de/xsd/routes_file.xsd">
    <vType id="ASL_VTYPE" length="5.0" minGap="2.0" carFollowModel="IDM" accel="1" decel="3" tau="1.5" maxSpeed="15"/>
    <route id="eastwest" color="1,1,0" edges="H4G4 G4F4"/>
    <route id="northsouth" color="1,1,0" edges="G5G4 G4G3"/>

     <vehicle id="0" type="ASL_VTYPE" route="eastwest" depart="0" departSpeed="0.000000" departPos="0.000000" color="1,1,0"/>
<vehicle id="1" type="ASL_VTYPE" route="eastwest" depart="0" departSpeed="0.000000" departPos="16.782660" color="1,1,0"/>
<vehicle id="2" type="ASL_VTYPE" route="eastwest" depart="0" departSpeed="0.000000" departPos="23.782660" color="1,1,0"/>
<vehicle id="3" type="ASL_VTYPE" route="eastwest" depart="0" departSpeed="0.000000" departPos="33.566241" color="1,1,0"/>
<vehicle id="4" type="ASL_VTYPE" route="eastwest" depart="0" departSpeed="0.000000" departPos="40.566241" color="1,1,0"/>
<vehicle id="5" type="ASL_VTYPE" route="eastwest" depart="0" departSpeed="0.000000" departPos="52.659938" color="1,1,0"/>
<vehicle id="6" type="ASL_VTYPE" route="eastwest" depart="0" departSpeed="0.000000" departPos="59.659938" color="1,1,0"/>
<vehicle id="7" type="ASL_VTYPE" route="eastwest" depart="0" departSpeed="0.000000" departPos="67.824472" color="1,1,0"/>
<vehicle id="8" type="ASL_VTYPE" route="eastwest" depart="0" departSpeed="0.000000" departPos="74.824472" color="1,1,0"/>
<vehicle id="9" type="ASL_VTYPE" route="eastwest" depart="0" departSpeed="0.000000" departPos="88.800093" color="1,1,0"/>
<vehicle id="10" type="ASL_VTYPE" route="eastwest" depart="0" departSpeed="0.000000" departPos="95.800093" color="1,1,0"/>
<vehicle id="11" type="ASL_VTYPE" route="eastwest" depart="0" departSpeed="0.000000" departPos="102.800093" color="1,1,0"/>
<vehicle id="12" type="ASL_VTYPE" route="eastwest" depart="0" departSpeed="0.000000" departPos="117.435098" color="1,1,0"/>
<vehicle id="13" type="ASL_VTYPE" route="eastwest" depart="0" departSpeed="0.000000" departPos="126.571803" color="1,1,0"/>
<vehicle id="14" type="ASL_VTYPE" route="eastwest" depart="0" departSpeed="0.000000" departPos="150.806467" color="1,1,0"/>
<vehicle id="15" type="ASL_VTYPE" route="eastwest" depart="0" departSpeed="0.000000" departPos="157.806467" color="1,1,0"/>
<vehicle id="16" type="ASL_VTYPE" route="eastwest" depart="0" departSpeed="0.000000" departPos="164.943078" color="1,1,0"/>
<vehicle id="17" type="ASL_VTYPE" route="eastwest" depart="0" departSpeed="0.000000" departPos="171.943078" color="1,1,0"/>
<vehicle id="18" type="ASL_VTYPE" route="eastwest" depart="0" departSpeed="0.000000" departPos="184.317737" color="1,1,0"/>
<vehicle id="19" type="ASL_VTYPE" route="eastwest" depart="0" departSpeed="0.000000" departPos="191.317737" color="1,1,0"/>
<vehicle id="20" type="ASL_VTYPE" route="eastwest" depart="0" departSpeed="0.000000" departPos="204.818169" color="1,1,0"/>
<vehicle id="21" type="ASL_VTYPE" route="eastwest" depart="0" departSpeed="0.000000" departPos="214.392979" color="1,1,0"/>
<vehicle id="22" type="ASL_VTYPE" route="eastwest" depart="0" departSpeed="0.000000" departPos="226.262527" color="1,1,0"/>
<vehicle id="23" type="ASL_VTYPE" route="eastwest" depart="0" departSpeed="0.000000" departPos="233.262527" color="1,1,0"/>
<vehicle id="24" type="ASL_VTYPE" route="eastwest" depart="0" departSpeed="0.000000" departPos="243.567051" color="1,1,0"/>
<vehicle id="25" type="ASL_VTYPE" route="eastwest" depart="0" departSpeed="0.000000" departPos="251.000557" color="1,1,0"/>
<vehicle id="26" type="ASL_VTYPE" route="eastwest" depart="0" departSpeed="0.000000" departPos="258.000557" color="1,1,0"/>
<vehicle id="27" type="ASL_VTYPE" route="eastwest" depart="0" departSpeed="0.000000" departPos="271.389592" color="1,1,0"/>
<vehicle id="28" type="ASL_VTYPE" route="eastwest" depart="0" departSpeed="0.000000" departPos="291.120977" color="1,1,0"/>
<vehicle id="29" type="ASL_VTYPE" route="eastwest" depart="0" departSpeed="0.000000" departPos="305.842620" color="1,1,0"/>
<vehicle id="30" type="ASL_VTYPE" route="eastwest" depart="0" departSpeed="0.000000" departPos="312.842620" color="1,1,0"/>
<vehicle id="31" type="ASL_VTYPE" route="eastwest" depart="0" departSpeed="0.000000" departPos="340.153306" color="1,1,0"/>
<vehicle id="32" type="ASL_VTYPE" route="eastwest" depart="0" departSpeed="0.000000" departPos="347.153306" color="1,1,0"/>
<vehicle id="33" type="ASL_VTYPE" route="eastwest" depart="0" departSpeed="0.000000" departPos="360.421191" color="1,1,0"/>
<vehicle id="34" type="ASL_VTYPE" route="eastwest" depart="0" departSpeed="0.000000" departPos="367.421191" color="1,1,0"/>
<vehicle id="35" type="ASL_VTYPE" route="eastwest" depart="0" departSpeed="0.000000" departPos="383.707124" color="1,1,0"/>
<vehicle id="36" type="ASL_VTYPE" route="eastwest" depart="0" departSpeed="0.000000" departPos="404.940194" color="1,1,0"/>
<vehicle id="37" type="ASL_VTYPE" route="eastwest" depart="0" departSpeed="0.000000" departPos="411.940194" color="1,1,0"/>
<vehicle id="38" type="ASL_VTYPE" route="eastwest" depart="0" departSpeed="0.000000" departPos="419.099740" color="1,1,0"/>
<vehicle id="39" type="ASL_VTYPE" route="eastwest" depart="0" departSpeed="0.000000" departPos="426.678042" color="1,1,0"/>
<vehicle id="40" type="ASL_VTYPE" route="eastwest" depart="0" departSpeed="0.000000" departPos="437.096922" color="1,1,0"/>
<vehicle id="41" type="ASL_VTYPE" route="eastwest" depart="0" departSpeed="0.000000" departPos="444.096922" color="1,1,0"/>
<vehicle id="42" type="ASL_VTYPE" route="eastwest" depart="0" departSpeed="0.000000" departPos="460.527834" color="1,1,0"/>
<vehicle id="43" type="ASL_VTYPE" route="eastwest" depart="0" departSpeed="0.000000" departPos="467.527834" color="1,1,0"/>
<vehicle id="44" type="ASL_VTYPE" route="eastwest" depart="0" departSpeed="0.000000" departPos="474.527834" color="1,1,0"/>
<vehicle id="45" type="ASL_VTYPE" route="eastwest" depart="0" departSpeed="0.000000" departPos="481.527834" color="1,1,0"/>
<vehicle id="46" type="ASL_VTYPE" route="eastwest" depart="0" departSpeed="0.000000" departPos="495.925953" color="1,1,0"/>
<vehicle id="47" type="ASL_VTYPE" route="eastwest" depart="0" departSpeed="0.000000" departPos="502.925953" color="1,1,0"/>
<vehicle id="48" type="ASL_VTYPE" route="eastwest" depart="0" departSpeed="0.000000" departPos="509.925953" color="1,1,0"/>
<vehicle id="49" type="ASL_VTYPE" route="eastwest" depart="0" departSpeed="0.000000" departPos="516.925953" color="1,1,0"/>

</routes>
