<?xml version="1.0" encoding="UTF-8"?>

<!-- generated on Fri 21 Feb 2020 03:20:42 PM PST by Eclipse SUMO netedit Version 1.4.0
<configuration xmlns:xsi="http://www.w3.org/2001/XMLSchema-instance" xsi:noNamespaceSchemaLocation="http://sumo.dlr.de/xsd/netconvertConfiguration.xsd">

    <input>
        <sumo-net-file value="asl_net.net.xml"/>
    </input>

    <output>
        <output-file value="/home/anthl10/Programming/sumo/tests/complex/tutorial/manhattan/data/asl_simple_net.net.xml"/>
    </output>

    <processing>
        <geometry.min-radius.fix.railways value="false"/>
        <geometry.max-grade.fix value="false"/>
        <offset.disable-normalization value="true"/>
        <lefthand value="false"/>
    </processing>

    <junctions>
        <no-turnarounds value="true"/>
        <junctions.corner-detail value="5"/>
        <junctions.limit-turn-speed value="5.5"/>
        <rectangular-lane-cut value="false"/>
    </junctions>

    <pedestrian>
        <walkingareas value="false"/>
    </pedestrian>

    <netedit>
        <route-files value="/home/anthl10/Programming/sumo/tests/complex/tutorial/manhattan/data/asl_routes_simple.rou.xml"/>
    </netedit>

    <report>
        <aggregate-warnings value="5"/>
    </report>

departPos="last"

</configuration>

-->
<!-- carFollowModel="IDM" --> 
<routes xmlns:xsi="http://www.w3.org/2001/XMLSchema-instance" xsi:noNamespaceSchemaLocation="http://sumo.dlr.de/xsd/routes_file.xsd">
	<vType id="ASL_VTYPE" length="5.0" minGap="2.0" carFollowModel="IDM" accel="1" decel="3" tau="1.5" delta="32" maxSpeed="15" speedFactor="1.0" speedDev="0"/>
    <route id="eastwest" color="1,1,0" edges="H4G4 G4F4"/>
     <vehicle id="0" type="ASL_VTYPE" route="eastwest" depart="0" departSpeed="0.000000" departPos="0.000000" color="1,1,0"/>
</routes>
